Version 4
SHEET 1 880 680
WIRE 208 -64 208 -80
WIRE 208 -64 144 -64
WIRE 288 -64 208 -64
WIRE 144 -48 144 -64
WIRE 144 64 144 32
WIRE 144 64 80 64
WIRE 144 80 144 64
WIRE 176 80 144 80
WIRE 288 80 288 -64
WIRE 288 80 256 80
WIRE 144 208 144 80
WIRE 176 208 144 208
WIRE 288 208 288 80
WIRE 288 208 256 208
WIRE 144 304 144 208
WIRE 208 304 144 304
WIRE 288 304 288 208
WIRE 288 304 208 304
WIRE 208 320 208 304
FLAG 368 64 0
FLAG 368 -16 Vin
FLAG 208 -80 Vin
FLAG 208 320 0
FLAG 80 64 Out
SYMBOL csw 256 208 R90
WINDOW 0 -32 40 VBottom 2
WINDOW 3 32 40 VTop 2
SYMATTR InstName _
SYMATTR Value _
SYMBOL csw 256 80 R90
WINDOW 0 -32 40 VBottom 2
WINDOW 3 32 40 VTop 2
SYMATTR InstName _
SYMATTR Value _
SYMBOL voltage 368 -32 R0
SYMATTR InstName Arduino
SYMATTR Value 5V
SYMBOL res 128 -64 R0
WINDOW 0 -37 36 Left 2
WINDOW 3 -27 80 Left 2
SYMATTR InstName R1
SYMATTR Value 10k
TEXT 72 -152 Left 2 ;AT Project: Push Button Circuit
TEXT 128 368 Left 2 ;Out to Arduino Pin 12
