Version 4
SHEET 1 880 680
WIRE 160 -64 160 -96
WIRE 160 -64 96 -64
WIRE 208 -64 160 -64
WIRE 96 -16 96 -64
WIRE 208 -16 208 -64
WIRE 96 80 96 64
WIRE 96 80 32 80
WIRE 96 112 96 80
WIRE 208 112 208 64
WIRE 96 224 96 176
WIRE 160 224 96 224
WIRE 208 224 208 176
WIRE 208 224 160 224
WIRE 160 256 160 224
FLAG 160 256 0
FLAG 160 -96 Vin
FLAG -32 -16 0
FLAG -32 -96 Vin
FLAG 32 80 Out
SYMBOL LED 192 112 R0
SYMATTR InstName IR_LED
SYMATTR Value 1.7V
SYMBOL PhotoDiode 96 144 R180
WINDOW 0 23 -24 Left 2
SYMATTR InstName Photodiode
SYMBOL res 80 -32 R0
SYMATTR InstName R1
SYMBOL res 192 -32 R0
SYMATTR InstName R2
SYMBOL voltage -32 -112 R0
SYMATTR InstName Arduino
SYMATTR Value 5V
TEXT 24 312 Left 2 ;Out to Arduino Pin A0
TEXT 0 -192 Left 2 ;AT Project: IR Sensor Circuit
