Version 4
SHEET 1 1120 680
WIRE 432 -128 432 -144
WIRE 576 -64 576 -144
WIRE 576 -64 464 -64
WIRE 224 -32 224 -64
WIRE 224 -32 80 -32
WIRE 336 -32 224 -32
WIRE 384 -32 336 -32
WIRE 592 -32 384 -32
WIRE 640 -32 640 -144
WIRE 640 -32 592 -32
WIRE 672 -32 640 -32
WIRE 384 0 384 -32
WIRE 512 0 512 -144
WIRE 128 80 32 80
WIRE 336 80 336 -32
WIRE 336 80 304 80
WIRE 128 112 64 112
WIRE 384 112 384 80
WIRE 384 112 304 112
WIRE 592 112 592 -32
WIRE 512 128 512 80
WIRE 560 128 512 128
WIRE 128 144 112 144
WIRE 352 144 304 144
WIRE 384 144 384 112
WIRE 736 144 624 144
WIRE 560 160 544 160
WIRE 80 176 80 -32
WIRE 128 176 80 176
WIRE 672 224 672 -32
WIRE 64 240 64 112
WIRE 352 240 352 144
WIRE 352 240 64 240
WIRE 384 240 384 224
WIRE 384 240 352 240
WIRE 64 256 64 240
WIRE 544 256 544 160
WIRE 624 256 544 256
WIRE 512 272 512 128
WIRE 112 288 112 144
WIRE 464 288 464 -64
WIRE 464 288 112 288
WIRE 32 352 32 80
WIRE 64 352 64 320
WIRE 64 352 32 352
WIRE 400 352 64 352
WIRE 512 352 512 336
WIRE 512 352 400 352
WIRE 592 352 592 176
WIRE 592 352 512 352
WIRE 672 352 672 304
WIRE 672 352 592 352
WIRE 400 368 400 352
FLAG 640 -144 Vcc
FLAG 576 -144 Trig
FLAG 512 -144 Echo
FLAG 432 -128 0
FLAG 96 -96 0
FLAG 96 -176 Vin
FLAG 400 368 0
FLAG 432 -144 Ground
FLAG 224 -64 Vin
FLAG 736 144 Out
SYMBOL AutoGenerated\\TLC555 208 128 R0
SYMATTR InstName U1
SYMBOL voltage 96 -192 R0
SYMATTR InstName V1
SYMATTR Value 5V
SYMBOL res 368 -16 R0
SYMATTR InstName R1
SYMATTR Value 2.7k
SYMBOL res 368 128 R0
SYMATTR InstName R2
SYMATTR Value 12k
SYMBOL OpAmps\\LF356 592 80 R0
SYMATTR InstName U2
SYMBOL res 496 -16 R0
SYMATTR InstName R3
SYMATTR Value 6.8k
SYMBOL cap 496 272 R0
SYMATTR InstName C2
SYMATTR Value 47µF
SYMBOL cap 48 256 R0
SYMATTR InstName C1
SYMATTR Value 1nF
SYMBOL pot 688 320 R180
WINDOW 0 -31 21 Left 2
WINDOW 3 -220 -15 Left 2
SYMATTR InstName U3
TEXT 496 -264 Left 2 ;HC-SR04 pins
TEXT 680 368 Left 2 !.include pot.sub
TEXT 192 440 Left 2 ;Out connects to Arduino Digital Pin 2
